
This summary file was generated by TurbSim (from OpenFAST-v3.2.1) on 19-Mar-2024 at 10:12:14.


ERROR:  ReadInputFile:OpenFInpFile:The input file, "TurbSim.inp", was not found.

ABORTING PROGRAM.
