
This summary file was generated by TurbSim (from OpenFAST-v3.2.1) on 19-Mar-2024 at 10:35:32.


Runtime Options:

    511340  Random seed #1
    RANLUX  Type of random number generator
         F  Output binary HH turbulence parameters?
         F  Output formatted turbulence parameters?
         F  Output AeroDyn HH files?
         T  Output AeroDyn FF files?
         F  Output BLADED FF files?
         T  Output tower data?
         F  Output HAWC FF files?
         F  Output formatted FF files?
         T  Output coherent turbulence time step file?
 0 -  NONE  IEC turbulence models scaled to exact specified standard deviation


Turbine/Model Specifications:

        21  Vertical grid-point matrix dimension
        21  Horizontal grid-point matrix dimension
     0.010  Time step [seconds]
    60.000  Analysis time [seconds]
    60.000  Usable output time [seconds]
    90.000  Hub height [m]
   155.000  Grid height [m]
   155.000  Grid width [m]
     0.000  Vertical flow angle [degrees]
     0.000  Horizontal flow angle [degrees]


Meteorological Boundary Conditions:

    IECKAI  IEC Kaimal spectral model
         1  IEC standard: IEC 61400-1 Ed. 3: 2005
    10.000  Percent turbulence intensity, IEC 61400-1 Ed. 3: 2005
       NTM  IEC Normal Turbulence Model
       N/A  IEC Extreme Turbulence Model (ETM) "c" parameter [m/s]
       PL   Wind profile type
    90.000  Reference height [m]
     8.000  Reference wind speed [m/s]
       N/A  Jet height [m]
     0.200  Power law exponent
     0.030  Surface roughness length [m]


Non-IEC Meteorological Boundary Conditions:

       N/A  Site latitude [degrees]
       N/A  Gradient Richardson number
       N/A  Friction or shear velocity [m/s]
       N/A  Mixing layer depth [m]
       N/A  Mean hub u'w' Reynolds stress
       N/A  Mean hub u'v' Reynolds stress
       N/A  Mean hub v'w' Reynolds stress


Spatial Coherence Models:

       IEC  u-component coherence model
      NONE  v-component coherence model
      NONE  w-component coherence model
(   12.000, 0.353E-03)  u-component coherence parameters
                   N/A  v-component coherence parameters
                   N/A  w-component coherence parameters
       N/A  Coherence exponent


You have requested that the following file(s) be generated:

   TurbSimBox_5MW_8mps.bts (AeroDyn/TurbSim full-field wind file)


Turbulence Simulation Scaling Parameter Summary:

   Turbulence model used                            =  IEC Kaimal
   Turbulence characteristic                        =  User-specified
   IEC standard                                     =  IEC 61400-1 Ed. 3: 2005
   Mean wind speed at hub height                    =    8.000 m/s
   Characteristic value of standard deviation       =    0.800 m/s
   Turbulence scale                                 =   42.000 m
   u-component integral scale                       =  340.200 m
   Coherency scale                                  =  340.200 m
   Characteristic value of hub turbulence intensity =   10.000%
   Gradient Richardson number                       =    0.000

   Wind profile type                                =  Power law
   Power law exponent                               =    0.200
   Mean shear across rotor disk                     =    0.024 (m/s)/m
   Assumed rotor diameter                           =  155.000 m
   Surface roughness length                         =    0.030 m

   Nyquist frequency of turbulent wind field        =   50.000 Hz

   Number of time steps in the FFT                  =     6000
   Number of time steps output                      =     6000
   Number of points simulated                       =      442


Mean Flow Angles:

   Vertical   =   0.0 degrees
   Horizontal =   0.0 degrees

Mean Wind Speed Profile:

   Height    Wind Speed   Horizontal Angle  Vertical Angle  U-comp (X)   V-comp (Y)   W-comp (Z)
     (m)        (m/s)         (degrees)       (degrees)       (m/s)        (m/s)        (m/s)   
   ------    ----------   ----------------  --------------  ----------   ----------   ----------
    167.5        9.06            0.00            0.00          9.06         0.00         0.00
    159.8        8.97            0.00            0.00          8.97         0.00         0.00
    152.0        8.88            0.00            0.00          8.88         0.00         0.00
    144.2        8.79            0.00            0.00          8.79         0.00         0.00
    136.5        8.69            0.00            0.00          8.69         0.00         0.00
    128.8        8.59            0.00            0.00          8.59         0.00         0.00
    121.0        8.49            0.00            0.00          8.49         0.00         0.00
    113.2        8.38            0.00            0.00          8.38         0.00         0.00
    105.5        8.26            0.00            0.00          8.26         0.00         0.00
     97.8        8.13            0.00            0.00          8.13         0.00         0.00
     90.0        8.00            0.00            0.00          8.00         0.00         0.00
     82.2        7.86            0.00            0.00          7.86         0.00         0.00
     74.5        7.70            0.00            0.00          7.70         0.00         0.00
     66.8        7.54            0.00            0.00          7.54         0.00         0.00
     59.0        7.35            0.00            0.00          7.35         0.00         0.00
     51.2        7.15            0.00            0.00          7.15         0.00         0.00
     43.5        6.92            0.00            0.00          6.92         0.00         0.00
     35.8        6.65            0.00            0.00          6.65         0.00         0.00
     28.0        6.33            0.00            0.00          6.33         0.00         0.00
     20.2        5.94            0.00            0.00          5.94         0.00         0.00
     12.5        5.39            0.00            0.00          5.39         0.00         0.00
      4.8        4.44            0.00            0.00          4.44         0.00         0.00


Harvested Random Seeds after Generation of the Random Numbers:

     36962250 K 1
            0 K 2


Hub-Height Simulated Turbulence Statistical Summary:

   Type of Wind        Min (m/s)   Mean (m/s)    Max (m/s)  Sigma (m/s)       TI (%)
   ----------------    ---------   ----------    ---------  -----------       ------
   Longitudinal (u)         6.58         8.00         9.33        0.567        7.085
   Lateral (v)             -1.53        -0.00         1.58        0.526        6.581
   Vertical (w)            -1.31         0.00         1.00        0.376        4.706
   U component              6.58         8.00         9.33        0.567        7.085
   V component             -1.53        -0.00         1.58        0.526        6.581
   W component             -1.31         0.00         1.00        0.376        4.706
   Horizontal (U&V)         6.60         8.02         9.33        0.564        7.034
   Total                    6.61         8.03         9.33        0.563        7.011

                       Min Reynolds     Mean Reynolds    Max Reynolds    Correlation
   Product             Stress (m/s)^2   Stress (m/s)^2   Stress (m/s)^2  Coefficient
   ----------------    --------------   --------------   --------------  -----------
   u'w'                     -0.754             0.040             0.886         0.187
   u'v'                     -1.480            -0.082             0.914        -0.276
   v'w'                     -0.723            -0.007             0.911        -0.037


   Friction Velocity (Ustar)  =      0.200 m/s
   Maximum Instantaneous TKE  =      1.489 (m/s)^2
   Maximum Instantaneous CTKE =      0.746 (m/s)^2


Grid Point Variance Summary:

   Y-coord  -77.50  -69.75  -62.00  -54.25  -46.50  -38.75  -31.00  -23.25  -15.50   -7.75    0.00    7.75   15.50   23.25   31.00   38.75   46.50   54.25   62.00   69.75   77.50

   Height   Standard deviation at grid points for the u component:
   167.50    0.451   0.453   0.403   0.505   0.591   0.726   0.666   0.813   0.631   0.564   0.453   0.609   0.565   0.561   0.500   0.443   0.480   0.424   0.514   0.513   0.480
   159.75    0.421   0.472   0.374   0.474   0.509   0.517   0.679   0.823   0.701   0.445   0.555   0.585   0.625   0.553   0.665   0.446   0.481   0.450   0.487   0.423   0.483
   152.00    0.363   0.453   0.455   0.418   0.528   0.546   0.643   0.711   0.703   0.606   0.508   0.499   0.516   0.475   0.551   0.585   0.544   0.574   0.416   0.501   0.438
   144.25    0.401   0.499   0.473   0.605   0.605   0.554   0.587   0.682   0.553   0.540   0.483   0.497   0.498   0.393   0.611   0.477   0.557   0.568   0.466   0.395   0.440
   136.50    0.652   0.409   0.435   0.418   0.533   0.544   0.570   0.625   0.512   0.448   0.385   0.401   0.474   0.535   0.644   0.482   0.489   0.531   0.454   0.505   0.364
   128.75    0.577   0.612   0.458   0.451   0.478   0.506   0.452   0.481   0.363   0.477   0.351   0.385   0.366   0.481   0.648   0.623   0.542   0.675   0.548   0.558   0.553
   121.00    0.604   0.631   0.425   0.393   0.454   0.418   0.426   0.380   0.374   0.357   0.373   0.418   0.375   0.520   0.641   0.652   0.570   0.686   0.618   0.629   0.509
   113.25    0.558   0.465   0.476   0.452   0.386   0.409   0.390   0.527   0.608   0.462   0.589   0.480   0.514   0.696   0.574   0.552   0.687   0.634   0.554   0.439   0.503
   105.50    0.620   0.397   0.457   0.436   0.562   0.489   0.452   0.453   0.526   0.535   0.632   0.524   0.620   0.636   0.695   0.442   0.639   0.637   0.493   0.493   0.430
    97.75    0.515   0.550   0.547   0.393   0.520   0.531   0.443   0.518   0.534   0.422   0.536   0.474   0.497   0.567   0.592   0.526   0.609   0.623   0.489   0.431   0.528
    90.00    0.517   0.504   0.560   0.498   0.467   0.432   0.474   0.418   0.414   0.500   0.567   0.550   0.641   0.515   0.582   0.623   0.545   0.425   0.574   0.498   0.453
    82.25    0.537   0.489   0.513   0.481   0.442   0.464   0.524   0.491   0.414   0.440   0.610   0.718   0.566   0.642   0.617   0.472   0.569   0.743   0.594   0.478   0.532
    74.50    0.538   0.435   0.471   0.563   0.461   0.606   0.592   0.578   0.450   0.490   0.637   0.717   0.664   0.830   0.643   0.572   0.622   0.668   0.537   0.619   0.573
    66.75    0.490   0.429   0.568   0.527   0.545   0.586   0.625   0.501   0.503   0.473   0.537   0.658   0.717   0.753   0.812   0.740   0.807   0.613   0.468   0.597   0.428
    59.00    0.411   0.511   0.540   0.579   0.534   0.556   0.560   0.595   0.617   0.619   0.537   0.499   0.598   0.716   0.662   0.743   0.816   0.614   0.590   0.623   0.439
    51.25    0.527   0.436   0.414   0.589   0.696   0.458   0.569   0.496   0.472   0.469   0.578   0.655   0.510   0.664   0.574   0.633   0.591   0.666   0.632   0.442   0.554
    43.50    0.492   0.414   0.372   0.530   0.673   0.504   0.634   0.470   0.504   0.508   0.584   0.604   0.568   0.638   0.569   0.541   0.430   0.627   0.745   0.614   0.632
    35.75    0.472   0.442   0.425   0.599   0.613   0.576   0.509   0.519   0.426   0.370   0.477   0.584   0.490   0.445   0.596   0.563   0.516   0.666   0.632   0.618   0.486
    28.00    0.491   0.462   0.560   0.512   0.576   0.615   0.537   0.339   0.435   0.540   0.443   0.448   0.626   0.490   0.678   0.664   0.682   0.745   0.737   0.496   0.368
    20.25    0.514   0.531   0.539   0.542   0.531   0.543   0.471   0.386   0.536   0.546   0.510   0.544   0.569   0.661   0.776   0.584   0.504   0.629   0.683   0.488   0.459
    12.50    0.529   0.500   0.442   0.478   0.466   0.451   0.454   0.466   0.440   0.534   0.646   0.715   0.645   0.642   0.625   0.697   0.520   0.602   0.618   0.552   0.416

   Height   Standard deviation at grid points for the v component:
   167.50    0.526   0.526   0.526   0.526   0.526   0.526   0.526   0.526   0.526   0.526   0.526   0.526   0.526   0.526   0.526   0.526   0.526   0.526   0.526   0.526   0.526
   159.75    0.526   0.526   0.526   0.526   0.526   0.526   0.526   0.526   0.526   0.526   0.526   0.526   0.526   0.526   0.526   0.526   0.526   0.526   0.526   0.526   0.526
   152.00    0.526   0.526   0.526   0.526   0.526   0.526   0.526   0.526   0.526   0.526   0.526   0.526   0.526   0.526   0.526   0.526   0.526   0.526   0.526   0.526   0.526
   144.25    0.526   0.526   0.526   0.526   0.526   0.526   0.526   0.526   0.526   0.526   0.526   0.526   0.526   0.526   0.526   0.526   0.526   0.526   0.526   0.526   0.526
   136.50    0.526   0.526   0.526   0.526   0.526   0.526   0.526   0.526   0.526   0.526   0.526   0.526   0.526   0.526   0.526   0.526   0.526   0.526   0.526   0.526   0.526
   128.75    0.526   0.526   0.526   0.526   0.526   0.526   0.526   0.526   0.526   0.526   0.526   0.526   0.526   0.526   0.526   0.526   0.526   0.526   0.526   0.526   0.526
   121.00    0.526   0.526   0.526   0.526   0.526   0.526   0.526   0.526   0.526   0.526   0.526   0.526   0.526   0.526   0.526   0.526   0.526   0.526   0.526   0.526   0.526
   113.25    0.526   0.526   0.526   0.526   0.526   0.526   0.526   0.526   0.526   0.526   0.526   0.526   0.526   0.526   0.526   0.526   0.526   0.526   0.526   0.526   0.526
   105.50    0.526   0.526   0.526   0.526   0.526   0.526   0.526   0.526   0.526   0.526   0.526   0.526   0.526   0.526   0.526   0.526   0.526   0.526   0.526   0.526   0.526
    97.75    0.526   0.526   0.526   0.526   0.526   0.526   0.526   0.526   0.526   0.526   0.526   0.526   0.526   0.526   0.526   0.526   0.526   0.526   0.526   0.526   0.526
    90.00    0.526   0.526   0.526   0.526   0.526   0.526   0.526   0.526   0.526   0.526   0.526   0.526   0.526   0.526   0.526   0.526   0.526   0.526   0.526   0.526   0.526
    82.25    0.526   0.526   0.526   0.526   0.526   0.526   0.526   0.526   0.526   0.526   0.526   0.526   0.526   0.526   0.526   0.526   0.526   0.526   0.526   0.526   0.526
    74.50    0.526   0.526   0.526   0.526   0.526   0.526   0.526   0.526   0.526   0.526   0.526   0.526   0.526   0.526   0.526   0.526   0.526   0.526   0.526   0.526   0.526
    66.75    0.526   0.526   0.526   0.526   0.526   0.526   0.526   0.526   0.526   0.526   0.526   0.526   0.526   0.526   0.526   0.526   0.526   0.526   0.526   0.526   0.526
    59.00    0.526   0.526   0.526   0.526   0.526   0.526   0.526   0.526   0.526   0.526   0.526   0.526   0.526   0.526   0.526   0.526   0.526   0.526   0.526   0.526   0.526
    51.25    0.526   0.526   0.526   0.526   0.526   0.526   0.526   0.526   0.526   0.526   0.526   0.526   0.526   0.526   0.526   0.526   0.526   0.526   0.526   0.526   0.526
    43.50    0.526   0.526   0.526   0.526   0.526   0.526   0.526   0.526   0.526   0.526   0.526   0.526   0.526   0.526   0.526   0.526   0.526   0.526   0.526   0.526   0.526
    35.75    0.526   0.526   0.526   0.526   0.526   0.526   0.526   0.526   0.526   0.526   0.526   0.526   0.526   0.526   0.526   0.526   0.526   0.526   0.526   0.526   0.526
    28.00    0.526   0.526   0.526   0.526   0.526   0.526   0.526   0.526   0.526   0.526   0.526   0.526   0.526   0.526   0.526   0.526   0.526   0.526   0.526   0.526   0.526
    20.25    0.526   0.526   0.526   0.526   0.526   0.526   0.526   0.526   0.526   0.526   0.526   0.526   0.526   0.526   0.526   0.526   0.526   0.526   0.526   0.526   0.526
    12.50    0.526   0.526   0.526   0.526   0.526   0.526   0.526   0.526   0.526   0.526   0.526   0.526   0.526   0.526   0.526   0.526   0.526   0.526   0.526   0.526   0.526

   Height   Standard deviation at grid points for the w component:
   167.50    0.376   0.376   0.376   0.376   0.376   0.376   0.376   0.376   0.376   0.376   0.376   0.376   0.376   0.376   0.376   0.376   0.376   0.376   0.376   0.376   0.376
   159.75    0.376   0.376   0.376   0.376   0.376   0.376   0.376   0.376   0.376   0.376   0.376   0.376   0.376   0.376   0.376   0.376   0.376   0.376   0.376   0.376   0.376
   152.00    0.376   0.376   0.376   0.376   0.376   0.376   0.376   0.376   0.376   0.376   0.376   0.376   0.376   0.376   0.376   0.376   0.376   0.376   0.376   0.376   0.376
   144.25    0.376   0.376   0.376   0.376   0.376   0.376   0.376   0.376   0.376   0.376   0.376   0.376   0.376   0.376   0.376   0.376   0.376   0.376   0.376   0.376   0.376
   136.50    0.376   0.376   0.376   0.376   0.376   0.376   0.376   0.376   0.376   0.376   0.376   0.376   0.376   0.376   0.376   0.376   0.376   0.376   0.376   0.376   0.376
   128.75    0.376   0.376   0.376   0.376   0.376   0.376   0.376   0.376   0.376   0.376   0.376   0.376   0.376   0.376   0.376   0.376   0.376   0.376   0.376   0.376   0.376
   121.00    0.376   0.376   0.376   0.376   0.376   0.376   0.376   0.376   0.376   0.376   0.376   0.376   0.376   0.376   0.376   0.376   0.376   0.376   0.376   0.376   0.376
   113.25    0.376   0.376   0.376   0.376   0.376   0.376   0.376   0.376   0.376   0.376   0.376   0.376   0.376   0.376   0.376   0.376   0.376   0.376   0.376   0.376   0.376
   105.50    0.376   0.376   0.376   0.376   0.376   0.376   0.376   0.376   0.376   0.376   0.376   0.376   0.376   0.376   0.376   0.376   0.376   0.376   0.376   0.376   0.376
    97.75    0.376   0.376   0.376   0.376   0.376   0.376   0.376   0.376   0.376   0.376   0.376   0.376   0.376   0.376   0.376   0.376   0.376   0.376   0.376   0.376   0.376
    90.00    0.376   0.376   0.376   0.376   0.376   0.376   0.376   0.376   0.376   0.376   0.376   0.376   0.376   0.376   0.376   0.376   0.376   0.376   0.376   0.376   0.376
    82.25    0.376   0.376   0.376   0.376   0.376   0.376   0.376   0.376   0.376   0.376   0.376   0.376   0.376   0.376   0.376   0.376   0.376   0.376   0.376   0.376   0.376
    74.50    0.376   0.376   0.376   0.376   0.376   0.376   0.376   0.376   0.376   0.376   0.376   0.376   0.376   0.376   0.376   0.376   0.376   0.376   0.376   0.376   0.376
    66.75    0.376   0.376   0.376   0.376   0.376   0.376   0.376   0.376   0.376   0.376   0.376   0.376   0.376   0.376   0.376   0.376   0.376   0.376   0.376   0.376   0.376
    59.00    0.376   0.376   0.376   0.376   0.376   0.376   0.376   0.376   0.376   0.376   0.376   0.376   0.376   0.376   0.376   0.376   0.376   0.376   0.376   0.376   0.376
    51.25    0.376   0.376   0.376   0.376   0.376   0.376   0.376   0.376   0.376   0.376   0.376   0.376   0.376   0.376   0.376   0.376   0.376   0.376   0.376   0.376   0.376
    43.50    0.376   0.376   0.376   0.376   0.376   0.376   0.376   0.376   0.376   0.376   0.376   0.376   0.376   0.376   0.376   0.376   0.376   0.376   0.376   0.376   0.376
    35.75    0.376   0.376   0.376   0.376   0.376   0.376   0.376   0.376   0.376   0.376   0.376   0.376   0.376   0.376   0.376   0.376   0.376   0.376   0.376   0.376   0.376
    28.00    0.376   0.376   0.376   0.376   0.376   0.376   0.376   0.376   0.376   0.376   0.376   0.376   0.376   0.376   0.376   0.376   0.376   0.376   0.376   0.376   0.376
    20.25    0.376   0.376   0.376   0.376   0.376   0.376   0.376   0.376   0.376   0.376   0.376   0.376   0.376   0.376   0.376   0.376   0.376   0.376   0.376   0.376   0.376
    12.50    0.376   0.376   0.376   0.376   0.376   0.376   0.376   0.376   0.376   0.376   0.376   0.376   0.376   0.376   0.376   0.376   0.376   0.376   0.376   0.376   0.376

   Mean standard deviation across all grid points:
      u component:    0.537 m/s
      v component:    0.526 m/s
      w component:    0.376 m/s


U-component (X) statistics from the interpolated hub point:

   Mean =   8.0000 m/s
   TI   =   7.0846 %


Processing complete.  1.9531 CPU seconds used.
